LTspice 24.1.7 for Windows
Circuit: C:\Users\a940590\Documents\GitHub\VMC\LTspice\VMC\VMC.net
Start Time: Tue Jun 10 17:18:49 2025
solver = Normal
Maximum thread count: 8
tnom = 27
temp = 27
method = trap
WARNING: Node vss is floating.

Direct Newton iteration failed to find .op point.  (Use ".option noopiter" to skip.)
Starting Gmin stepping
Gmin = 10
vernier = 0.5
vernier = 0.666667
Gmin = 3.04418
vernier = 0.888888
Gmin = 0.5164
vernier = 1
Gmin = 0.0567082
Gmin = 0.006089
vernier = 0.5
Gmin = 0.00102156
vernier = 0.25
vernier = 0.125
vernier = 0.0625
Gmin = 0.00090387
vernier = 0.03125
vernier = 0.015625
vernier = 0.0078125
vernier = 0.00390625
Gmin = 0.000911748
vernier = 0.00520833
Gmin = 0.000901132
vernier = 0.00694444
vernier = 0.00925925
Gmin = 0.000883592
vernier = 0.0123457
vernier = 0.0164609
Gmin = 0.00085634
vernier = 0.0219478
Gmin = 0.00081518
vernier = 0.0292638
vernier = 0.0390184
Gmin = 0.000750578
vernier = 0.0520245
vernier = 0.0693659
Gmin = 0.000658201
vernier = 0.0924879
Gmin = 0.000535706
vernier = 0.123317
vernier = 0.164423
Gmin = 0.000380038
vernier = 0.21923
vernier = 0.292307
Gmin = 0.000221073
vernier = 0.389743
Gmin = 9.54418e-05
vernier = 0.519657
vernier = 0.692876
Gmin = 2.42075e-05
vernier = 0.923834
vernier = 1
Gmin = 3.23527e-06
vernier = 0.5
vernier = 0.25
vernier = 0.125
vernier = 0.0625
vernier = 0.03125
vernier = 0.015625
vernier = 0.0078125
vernier = 0.00390625
vernier = 0.00195312
Gmin = 3.23527e-06
vernier = 0.000976562
vernier = 0.000488281
Gmin = 0
Gmin stepping failed

Starting source stepping with srcstepmethod=0
Source Step = 3.0303%
vernier = 0.25
Source Step = 1.70455%
Source Step = 2.27273%
Source Step = 2.74621%
Source Step = 3.2197%
Source Step = 3.69318%
Source Step = 4.16667%
vernier = 0.0234375
Source Step = 4.80587%
Source Step = 5.5161%
Source Step = 6.22633%
Source Step = 6.93655%
Source Step = 7.64678%
vernier = 0.0351562
Source Step = 8.57008%
Source Step = 9.63542%
Source Step = 10.7008%
Source Step = 11.7661%
Source Step = 12.8314%
vernier = 0.0527344
Source Step = 14.1631%
Source Step = 15.7611%
Source Step = 16.1407%
Source Step = 16.2405%
Source Step = 16.3404%
Source Step = 16.4403%
Source Step = 16.5402%
Source Step = 16.64%
vernier = 0.00494385
Source Step = 16.7799%
Source Step = 16.9297%
Source Step = 17.0795%
Source Step = 17.2293%
Source Step = 17.3791%
vernier = 0.00741577
Source Step = 17.5814%
Source Step = 17.8061%
Source Step = 18.0308%
Source Step = 18.2555%
Source Step = 18.4802%
vernier = 0.0111237
Source Step = 18.7724%
Source Step = 19.1095%
Source Step = 19.4465%
Source Step = 19.7836%
Source Step = 20.1207%
vernier = 0.0166855
Source Step = 20.5421%
Source Step = 21.0477%
Source Step = 21.5533%
Source Step = 22.0589%
Source Step = 22.5645%
vernier = 0.0250282
Source Step = 23.1713%
Source Step = 23.9297%
Source Step = 24.6881%
Source Step = 25.4466%
Source Step = 26.205%
vernier = 0.0375423
Source Step = 27.0772%
Source Step = 28.2148%
Source Step = 29.3525%
Source Step = 30.4901%
Source Step = 31.6278%
vernier = 0.0563135
Source Step = 32.8792%
Source Step = 34.5857%
Source Step = 36.2921%
Source Step = 37.9986%
Source Step = 39.7051%
vernier = 0.0844703
Source Step = 41.4969%
Source Step = 44.0566%
Source Step = 46.6163%
Source Step = 49.176%
Source Step = 51.7357%
Source Step = 54.2954%
vernier = 0.126705
Source Step = 58.135%
Source Step = 61.9745%
Source Step = 65.8141%
Source Step = 69.6536%
Source Step = 73.4932%
vernier = 0.190058
Source Step = 79.0605%
Source Step = 84.8199%
Source Step = 90.5792%
Source Step = 91.7761%
Source Step = 91.8661%
Source Step = 91.9561%
Source Step = 92.0461%
Source Step = 92.136%
Source Step = 92.226%
Source Step = 92.316%
Source Step = 92.406%
Source Step = 92.496%
Source Step = 92.586%
Source Step = 92.676%
Source Step = 92.766%
Source Step = 92.856%
Source Step = 92.9459%
Source Step = 93.0359%
Source Step = 93.1259%
Source Step = 93.2159%
Source Step = 93.3059%
Source Step = 93.3959%
Source Step = 93.4859%
Source Step = 93.5759%
Source Step = 93.6659%
Source Step = 93.7559%
Source Step = 93.8458%
Source Step = 93.9358%
Source Step = 94.0258%
Source Step = 94.1158%
Source Step = 94.2058%
Source Step = 94.2958%
Source Step = 94.3858%
Source Step = 94.4758%
Source Step = 94.5658%
Source Step = 94.6558%
Source Step = 94.7457%
Source Step = 94.8357%
Source Step = 94.9257%
Source Step = 95.0157%
Source Step = 95.1057%
Source Step = 95.1957%
Source Step = 95.2857%
Source Step = 95.3757%
Source Step = 95.4657%
Source Step = 95.5556%
Source Step = 95.6456%
Source Step = 95.7356%
Source Step = 95.8256%
Source Step = 95.9156%
Source Step = 96.0056%
Source Step = 96.0956%
Source Step = 96.1856%
Source Step = 96.2756%
Source Step = 96.3656%
Source Step = 96.4555%
Source Step = 96.5455%
Source Step = 96.6355%
Source Step = 96.7255%
Source Step = 96.8155%
Source Step = 96.9055%
Source Step = 96.9955%
Source Step = 97.0855%
Source Step = 97.1755%
Source Step = 97.2655%
Source Step = 97.3554%
Source Step = 97.4454%
Source Step = 97.5354%
Source Step = 97.6254%
Source Step = 97.7154%
Source Step = 97.8054%
Source Step = 97.8954%
Source Step = 97.9854%
Source Step = 98.0754%
Source Step = 98.1653%
Source Step = 98.2553%
Source Step = 98.3453%
Source Step = 98.4353%
Source Step = 98.5253%
Source Step = 98.6153%
Source Step = 98.7053%
Source Step = 98.7953%
Source Step = 98.8853%
Source Step = 98.9753%
Source Step = 99.0652%
Source Step = 99.1552%
Source Step = 99.2452%
Starting source stepping with srcstepmethod=1
Source Step = 3.0303%
vernier = 0.25
Source Step = 0.0828598%
Source Step = 0.201231%
Source Step = 0.319602%
Source Step = 0.437973%
Source Step = 0.556345%
vernier = 0.00585938
Source Step = 0.710227%
Source Step = 0.887784%
Source Step = 1.06534%
Source Step = 1.2429%
Source Step = 1.42045%
vernier = 0.00878906
Source Step = 1.6424%
Source Step = 1.90874%
Source Step = 2.17507%
Source Step = 2.44141%
Source Step = 2.70774%
vernier = 0.0131836
Source Step = 3.02734%
Source Step = 3.42685%
Source Step = 3.82635%
Source Step = 4.22585%
Source Step = 4.62536%
vernier = 0.0197754
Source Step = 5.08478%
Source Step = 5.68404%
Source Step = 6.28329%
Source Step = 6.88255%
Source Step = 7.4818%
vernier = 0.0296631
Source Step = 8.14098%
Source Step = 9.03986%
Source Step = 9.93874%
Source Step = 10.8376%
Source Step = 11.7365%
vernier = 0.0444946
Source Step = 12.6803%
Source Step = 14.0287%
Source Step = 15.377%
Source Step = 16.7253%
Source Step = 18.0736%
Source Step = 19.4219%
vernier = 0.0667419
Source Step = 21.4444%
Source Step = 23.4669%
Source Step = 25.4894%
Source Step = 27.5119%
Source Step = 29.5344%
vernier = 0.100113
Source Step = 32.467%
Source Step = 35.5007%
Source Step = 38.5344%
Source Step = 41.5681%
Source Step = 44.6019%
vernier = 0.150169
Source Step = 48.8491%
Source Step = 53.3997%
Source Step = 57.9502%
Source Step = 62.5008%
Source Step = 67.0514%
vernier = 0.225254
Source Step = 73.1947%
Source Step = 80.0206%
Source Step = 86.8465%
Source Step = 92.4778%
vernier = 0.0140784
Source stepping failed

Pseudo Transient succeeded in finding the operating point at 1.03877 s.
Total elapsed time: 18.857 seconds.

Files loaded:
C:\Users\a940590\Documents\GitHub\VMC\LTspice\VMC\VMC.net
C:\Users\a940590\Documents\GitHub\VMC\LTspice\VMC\SHT40I_model.sub
C:\Users\a940590\Documents\GitHub\VMC\LTspice\VMC\lm321lv.lib
C:\Users\a940590\Documents\GitHub\VMC\LTspice\VMC\SI2306K.sub
C:\Users\a940590\AppData\Local\LTspice\lib\sub\ADP7105.sub

