LTspice 24.1.9 for Windows
Circuit: C:\Users\Antoine\Documents\GitHub\VMC\LTspice\VMC\VMC.net
Start Time: Fri Jun  6 18:34:01 2025
solver = Normal
Maximum thread count: 12
tnom = 27
temp = 27
method = trap
WARNING: Node vss is floating.

Instance "u5:MMED": Length shorter than recommended for a level 1 MOSFET.
Instance "u5:MMED": Width narrower than recommended for a level 1 MOSFET.
Instance "u5:MSTRO": Length shorter than recommended for a level 1 MOSFET.
Instance "u5:MSTRO": Width narrower than recommended for a level 1 MOSFET.
Instance "u5:MWEAK": Length shorter than recommended for a level 1 MOSFET.
Instance "u5:MWEAK": Width narrower than recommended for a level 1 MOSFET.
Direct Newton iteration failed to find .op point.  (Use ".option noopiter" to skip.)
Starting Gmin stepping
Gmin = 10
vernier = 0.5
vernier = 0.666667
Gmin = 3.04418
vernier = 0.888888
Gmin = 0.5164
vernier = 1
Gmin = 0.0567082
Gmin = 0.006089
vernier = 0.5
Gmin = 0.00102156
vernier = 0.25
vernier = 0.125
vernier = 0.0625
Gmin = 0.000853655
vernier = 0.03125
vernier = 0.015625
vernier = 0.0078125
Gmin = 0.000858576
vernier = 0.0104167
vernier = 0.0138889
Gmin = 0.000833643
vernier = 0.0185185
vernier = 0.0246913
Gmin = 0.000795405
vernier = 0.0329218
Gmin = 0.000738821
vernier = 0.0438957
vernier = 0.0585276
Gmin = 0.000652928
vernier = 0.0780367
vernier = 0.104049
Gmin = 0.000536533
vernier = 0.138732
Gmin = 0.000394587
vernier = 0.184976
vernier = 0.246634
Gmin = 0.000236813
vernier = 0.328846
vernier = 0.164423
Gmin = 0.00013595
vernier = 0.0822114
vernier = 0.0411057
vernier = 0.0205529
Gmin = 0.000130513
vernier = 0.0102764
vernier = 0.00513821
vernier = 0.00256911
vernier = 0.00128455
Gmin = 0.000130931
vernier = 0.000642277
vernier = 0.000481708
Gmin = 0
Gmin stepping failed

Starting source stepping with srcstepmethod=0
Source Step = 3.0303%
vernier = 0.25
Source Step = 1.70455%
Source Step = 3.59848%
Source Step = 5.49242%
Source Step = 7.38636%
Source Step = 9.2803%
vernier = 0.09375
Source Step = 11.9318%
Source Step = 14.7727%
Source Step = 17.6136%
Source Step = 20.4545%
Source Step = 23.2955%
vernier = 0.140625
Source Step = 27.1307%
Source Step = 31.392%
Source Step = 34.5881%
Source Step = 34.6413%
Source Step = 34.7079%
Source Step = 34.7745%
Source Step = 34.8411%
Source Step = 34.9077%
Source Step = 34.9743%
vernier = 0.0032959
Source Step = 35.0741%
Source Step = 35.174%
Source Step = 35.2739%
Source Step = 35.3738%
Source Step = 35.4736%
vernier = 0.00494385
Source Step = 35.6185%
Source Step = 35.7683%
Source Step = 35.9181%
Source Step = 36.0679%
Source Step = 36.2177%
vernier = 0.00741577
Source Step = 36.4274%
Source Step = 36.6522%
Source Step = 36.8769%
Source Step = 37.1016%
Source Step = 37.3263%
vernier = 0.0111237
Source Step = 37.6297%
Source Step = 37.9668%
Source Step = 38.3039%
Source Step = 38.6409%
Source Step = 38.978%
vernier = 0.0166855
Source Step = 39.4162%
Source Step = 39.9218%
Source Step = 40.4275%
Source Step = 40.9331%
Source Step = 41.4387%
vernier = 0.0250282
Source Step = 42.0707%
Source Step = 42.8292%
Source Step = 43.5876%
Source Step = 44.346%
Source Step = 45.1045%
vernier = 0.0375423
Source Step = 46.0146%
Source Step = 47.1522%
Source Step = 48.2899%
Source Step = 49.4275%
Source Step = 50.5652%
vernier = 0.0563135
Source Step = 51.8735%
Source Step = 53.5799%
Source Step = 55.2864%
Source Step = 56.9929%
Source Step = 58.6993%
vernier = 0.0844703
Source Step = 60.5765%
Source Step = 63.1362%
Source Step = 65.6959%
Source Step = 68.2556%
Source Step = 70.8153%
vernier = 0.126705
Source Step = 73.503%
Source Step = 77.3425%
Source Step = 81.1821%
Source Step = 85.0216%
Source Step = 88.8612%
Source Step = 91.1709%
Source Step = 91.2309%
Source Step = 91.2909%
Source Step = 91.3509%
Source Step = 91.4109%
Source Step = 91.4709%
Source Step = 91.5309%
Source Step = 91.5909%
Source Step = 91.6509%
Source Step = 91.7109%
Source Step = 91.7709%
Source Step = 91.8309%
Source Step = 91.8908%
Source Step = 91.9508%
Source Step = 92.0108%
Source Step = 92.0708%
Source Step = 92.1308%
Source Step = 92.1908%
Source Step = 92.2508%
Source Step = 92.3108%
Source Step = 92.3708%
Source Step = 92.4308%
Source Step = 92.4908%
Source Step = 92.5508%
Source Step = 92.6108%
Source Step = 92.6708%
Source Step = 92.7308%
Source Step = 92.7907%
Source Step = 92.8507%
Source Step = 92.9107%
Source Step = 92.9707%
Source Step = 93.0307%
Source Step = 93.0907%
Source Step = 93.1507%
Source Step = 93.2107%
Source Step = 93.2707%
Source Step = 93.3307%
Source Step = 93.3907%
Source Step = 93.4507%
Source Step = 93.5107%
Source Step = 93.5707%
Source Step = 93.6306%
Source Step = 93.6906%
Source Step = 93.7506%
Source Step = 93.8106%
Source Step = 93.8706%
Source Step = 93.9306%
Source Step = 93.9906%
Source Step = 94.0506%
Source Step = 94.1106%
Source Step = 94.1706%
Source Step = 94.2306%
Source Step = 94.2906%
Source Step = 94.3506%
Source Step = 94.4106%
Source Step = 94.4706%
Source Step = 94.5305%
Source Step = 94.5905%
Source Step = 94.6505%
Source Step = 94.7105%
Source Step = 94.7705%
Source Step = 94.8305%
Source Step = 94.8905%
Source Step = 94.9505%
Source Step = 95.0105%
Source Step = 95.0705%
Source Step = 95.1305%
Source Step = 95.1905%
Source Step = 95.2505%
Source Step = 95.3105%
Source Step = 95.3704%
Source Step = 95.4304%
Source Step = 95.4904%
Source Step = 95.5504%
Source Step = 95.6104%
Source Step = 95.6704%
Source Step = 95.7304%
Source Step = 95.7904%
Source Step = 95.8504%
Source Step = 95.9104%
Source Step = 95.9704%
Source Step = 96.0304%
Source Step = 96.0904%
Source Step = 96.1504%
Source Step = 96.2104%
Source Step = 96.2703%
Source Step = 96.3303%
Source Step = 96.3903%
Source Step = 96.4503%
Source Step = 96.5103%
Source Step = 96.5703%
Source Step = 96.6303%
Source Step = 96.6903%
Source Step = 96.7503%
Source Step = 96.8103%
Source Step = 96.8703%
Source Step = 96.9303%
Source Step = 96.9903%
Source Step = 97.0503%
Source Step = 97.1102%
Source Step = 97.1702%
Source Step = 97.2302%
Source Step = 97.2902%
Source Step = 97.3502%
Source Step = 97.4102%
Source Step = 97.4702%
Source Step = 97.5302%
Source Step = 97.5902%
Source Step = 97.6502%
Source Step = 97.7102%
Source Step = 97.7702%
Source Step = 97.8302%
Source Step = 97.8902%
Source Step = 97.9502%
Source Step = 98.0101%
Source Step = 98.0701%
Source Step = 98.1301%
Source Step = 98.1901%
Source Step = 98.2501%
Source Step = 98.3101%
Source Step = 98.3701%
Source Step = 98.4301%
Source Step = 98.4901%
Source Step = 98.5501%
Source Step = 98.6101%
Source Step = 98.6701%
Source Step = 98.7301%
Source Step = 98.7901%
Source Step = 98.85%
Starting source stepping with srcstepmethod=1
Source Step = 3.0303%
vernier = 0.25
Source Step = 0.0828598%
Source Step = 0.201231%
Source Step = 0.319602%
Source Step = 0.437973%
Source Step = 0.556345%
vernier = 0.00585938
Source Step = 0.710227%
Source Step = 0.887784%
Source Step = 1.06534%
Source Step = 1.2429%
Source Step = 1.38938%
Source stepping failed

Pseudo Transient succeeded in finding the operating point at 1.09601 s.
Total elapsed time: 57.177 seconds.

Files loaded:
C:\Users\Antoine\Documents\GitHub\VMC\LTspice\VMC\VMC.net
C:\Users\Antoine\Documents\GitHub\VMC\LTspice\VMC\SHT40I_model.sub
C:\Users\Antoine\Documents\GitHub\VMC\LTspice\VMC\lm321lv.lib
C:\Users\Antoine\Documents\GitHub\VMC\LTspice\VMC\MOS.lib

