LTspice 24.1.9 for Windows
Circuit: C:\Users\Antoine\Documents\GitHub\VMC\LTspice\VMC\VMC.net
Start Time: Sat Jun  7 21:03:51 2025
solver = Normal
Maximum thread count: 12
tnom = 27
temp = 27
method = trap
WARNING: Node vss is floating.

Instance "u6:MPASS": Length shorter than recommended for a level 1 MOSFET.
Instance "u6:MPASS": Width narrower than recommended for a level 1 MOSFET.
Instance "u5:MMED": Length shorter than recommended for a level 1 MOSFET.
Instance "u5:MMED": Width narrower than recommended for a level 1 MOSFET.
Instance "u5:MSTRO": Length shorter than recommended for a level 1 MOSFET.
Instance "u5:MSTRO": Width narrower than recommended for a level 1 MOSFET.
Instance "u5:MWEAK": Length shorter than recommended for a level 1 MOSFET.
Instance "u5:MWEAK": Width narrower than recommended for a level 1 MOSFET.
Direct Newton iteration failed to find .op point.  (Use ".option noopiter" to skip.)
Starting Gmin stepping
Gmin = 10
vernier = 0.5
vernier = 0.666667
Gmin = 3.04418
vernier = 0.888888
Gmin = 0.5164
vernier = 1
Gmin = 0.0567082
Gmin = 0.006089
Gmin = 0.000653801
vernier = 0.5
vernier = 0.25
vernier = 0.125
vernier = 0.0625
Gmin = 0.000693595
vernier = 0.03125
vernier = 0.015625
vernier = 0.0208333
Gmin = 0.000676681
vernier = 0.0277778
Gmin = 0.000636907
vernier = 0.037037
vernier = 0.0493827
Gmin = 0.000576856
vernier = 0.0658435
vernier = 0.0877914
Gmin = 0.000493297
vernier = 0.117055
Gmin = 0.000383117
vernier = 0.156073
vernier = 0.208098
vernier = 0.104049
Gmin = 0.000281215
vernier = 0.0520245
vernier = 0.0260122
vernier = 0.0130061
vernier = 0.00650306
Gmin = 0.000278493
vernier = 0.00325153
vernier = 0.00433537
Gmin = 0.000276464
vernier = 0.00578049
vernier = 0.00770732
Gmin = 0.000272664
vernier = 0.0102764
Gmin = 0.00026661
vernier = 0.0137019
vernier = 0.0182692
Gmin = 0.000256989
vernier = 0.0243589
vernier = 0.0324786
Gmin = 0.000242463
vernier = 0.0433047
Gmin = 0.000220649
vernier = 0.0577396
vernier = 0.0769862
Gmin = 0.000189166
vernier = 0.102648
vernier = 0.136864
Gmin = 0.000148378
vernier = 0.182486
Gmin = 0.000100332
vernier = 0.243314
vernier = 0.324419
Gmin = 5.32832e-05
vernier = 0.432558
vernier = 0.576744
Gmin = 1.99033e-05
vernier = 0.768992
Gmin = 4.21316e-06
vernier = 1
Gmin = 4.74298e-07
Gmin = 5.09274e-08
Gmin = 5.46829e-09
Gmin = 5.87153e-10
Gmin = 6.30451e-11
Gmin = 6.76941e-12
Gmin = 7.2686e-13
Gmin = 0
Gmin stepping succeeded in finding the operating point.

Changing Tseed to 1e-08
Changing Tseed to 1e-10
Changing Tseed to 1e-07
Total elapsed time: 2.769 seconds.

Files loaded:
C:\Users\Antoine\Documents\GitHub\VMC\LTspice\VMC\VMC.net
C:\Users\Antoine\Documents\GitHub\VMC\LTspice\VMC\SHT40I_model.sub
C:\Users\Antoine\Documents\GitHub\VMC\LTspice\VMC\RT9161-50GV.lib
C:\Users\Antoine\Documents\GitHub\VMC\LTspice\VMC\lm321lv.lib
C:\Users\Antoine\Documents\GitHub\VMC\LTspice\VMC\MOS.lib

