LTspice 24.1.7 for Windows
Circuit: C:\Users\a940590\Documents\GitHub\VMC\LTspice\VMC\VMC.net
Start Time: Tue Jun 10 09:33:19 2025
solver = Normal
Maximum thread count: 8
tnom = 27
temp = 27
method = trap
WARNING: Node vss is floating.

Instance "u5:MMED": Length shorter than recommended for a level 1 MOSFET.
Instance "u5:MMED": Width narrower than recommended for a level 1 MOSFET.
Instance "u5:MSTRO": Length shorter than recommended for a level 1 MOSFET.
Instance "u5:MSTRO": Width narrower than recommended for a level 1 MOSFET.
Instance "u5:MWEAK": Length shorter than recommended for a level 1 MOSFET.
Instance "u5:MWEAK": Width narrower than recommended for a level 1 MOSFET.
Direct Newton iteration failed to find .op point.  (Use ".option noopiter" to skip.)
Starting Gmin stepping
Gmin = 10
vernier = 0.5
vernier = 0.666667
Gmin = 3.04418
vernier = 0.888888
Gmin = 0.5164
vernier = 1
Gmin = 0.0567082
Gmin = 0.006089
vernier = 0.5
Gmin = 0.00113507
vernier = 0.25
vernier = 0.125
vernier = 0.0625
vernier = 0.03125
Gmin = 0.00106002
vernier = 0.015625
vernier = 0.0208333
Gmin = 0.00102613
vernier = 0.0277778
vernier = 0.037037
Gmin = 0.00095643
vernier = 0.0493827
vernier = 0.0246913
vernier = 0.0123457
Gmin = 0.000913338
vernier = 0.00617283
vernier = 0.00308642
Gmin = 0.00090842
vernier = 0.00411522
vernier = 0.00548696
Gmin = 0.000897896
vernier = 0.00731595
vernier = 0.00975459
Gmin = 0.00088137
vernier = 0.0130061
Gmin = 0.000855989
vernier = 0.0173415
vernier = 0.023122
Gmin = 0.000815047
vernier = 0.0308293
vernier = 0.0411057
Gmin = 0.000753858
vernier = 0.0548076
Gmin = 0.000666909
vernier = 0.0730768
vernier = 0.0974357
Gmin = 0.000543354
vernier = 0.129914
vernier = 0.173219
Gmin = 0.000392708
vernier = 0.230959
Gmin = 0.000236675
vernier = 0.307945
vernier = 0.153972
vernier = 0.0769862
vernier = 0.0384931
vernier = 0.0192465
Gmin = 0.00022573
vernier = 0.00962327
vernier = 0.00481163
vernier = 0.00240582
Gmin = 0.000223706
vernier = 0.00120291
vernier = 0.000601454
vernier = 0.000451091
Gmin = 0
Gmin stepping failed

Starting source stepping with srcstepmethod=0
Source Step = 3.0303%
vernier = 0.25
Source Step = 1.70455%
Source Step = 2.27273%
Source Step = 2.74621%
Source Step = 3.2197%
Source Step = 3.69318%
Source Step = 4.16667%
vernier = 0.0234375
Source Step = 4.80587%
Source Step = 5.5161%
Source Step = 6.22633%
Source Step = 6.93655%
Source Step = 7.64678%
vernier = 0.0351562
Source Step = 8.57008%
Source Step = 9.63542%
Source Step = 10.7008%
Source Step = 11.7661%
Source Step = 12.8314%
vernier = 0.0527344
Source Step = 14.1631%
Source Step = 15.7611%
Source Step = 16.1407%
Source Step = 16.2405%
Source Step = 16.3404%
Source Step = 16.4403%
Source Step = 16.5402%
Source Step = 16.64%
vernier = 0.00494385
Source Step = 16.7799%
Source Step = 16.9297%
Source Step = 17.0795%
Source Step = 17.2293%
Source Step = 17.3791%
vernier = 0.00741577
Source Step = 17.5814%
Source Step = 17.8061%
Source Step = 18.0308%
Source Step = 18.2555%
Source Step = 18.4802%
vernier = 0.0111237
Source Step = 18.7724%
Source Step = 19.1095%
Source Step = 19.4465%
Source Step = 19.7836%
Source Step = 20.1207%
vernier = 0.0166855
Source Step = 20.5421%
Source Step = 21.0477%
Source Step = 21.5533%
Source Step = 22.0589%
Source Step = 22.5645%
vernier = 0.0250282
Source Step = 23.1713%
Source Step = 23.9297%
Source Step = 24.6881%
Source Step = 25.4466%
Source Step = 26.205%
vernier = 0.0375423
Source Step = 27.0772%
Source Step = 28.2148%
Source Step = 29.3525%
Source Step = 30.4901%
Source Step = 31.6278%
vernier = 0.0563135
Source Step = 32.8792%
Source Step = 34.5857%
Source Step = 36.2921%
Source Step = 37.9986%
Source Step = 39.7051%
vernier = 0.0844703
Source Step = 41.4969%
Source Step = 44.0566%
Source Step = 46.6163%
Source Step = 49.176%
Source Step = 51.7357%
Source Step = 54.2954%
vernier = 0.126705
Source Step = 58.135%
Source Step = 61.9745%
Source Step = 65.8141%
Source Step = 69.6536%
Source Step = 73.4932%
vernier = 0.190058
Source Step = 79.0605%
Source Step = 84.8199%
Source Step = 90.5792%
Source Step = 91.7761%
Source Step = 91.8661%
Source Step = 91.9561%
Source Step = 92.0461%
Source Step = 92.136%
Source Step = 92.226%
Source Step = 92.316%
Source Step = 92.406%
Source Step = 92.496%
Source Step = 92.586%
Source Step = 92.676%
Source Step = 92.766%
Source Step = 92.856%
Source Step = 92.9459%
Source Step = 93.0359%
Source Step = 93.1259%
Source Step = 93.2159%
Source Step = 93.3059%
Source Step = 93.3959%
Source Step = 93.4859%
Source Step = 93.5759%
Source Step = 93.6659%
Source Step = 93.7559%
Source Step = 93.8458%
Source Step = 93.9358%
Source Step = 94.0258%
Source Step = 94.1158%
Source Step = 94.2058%
Source Step = 94.2958%
Source Step = 94.3858%
Source Step = 94.4758%
Source Step = 94.5658%
Source Step = 94.6558%
Source Step = 94.7457%
Source Step = 94.8357%
Source Step = 94.9257%
Source Step = 95.0157%
Source Step = 95.1057%
Source Step = 95.1957%
Source Step = 95.2857%
Source Step = 95.3757%
Source Step = 95.4657%
Source Step = 95.5556%
Source Step = 95.6456%
Source Step = 95.7356%
Source Step = 95.8256%
Source Step = 95.9156%
Source Step = 96.0056%
Source Step = 96.0956%
Source Step = 96.1856%
Source Step = 96.2756%
Source Step = 96.3656%
Source Step = 96.4555%
Source Step = 96.5455%
Source Step = 96.6355%
Source Step = 96.7255%
Source Step = 96.8155%
Source Step = 96.9055%
Source Step = 96.9955%
Source Step = 97.0855%
Source Step = 97.1755%
Source Step = 97.2655%
Source Step = 97.3554%
Source Step = 97.4454%
Source Step = 97.5354%
Source Step = 97.6254%
Source Step = 97.7154%
Source Step = 97.8054%
Source Step = 97.8954%
Source Step = 97.9854%
Source Step = 98.0754%
Source Step = 98.1653%
Source Step = 98.2553%
Source Step = 98.3453%
Source Step = 98.4353%
Source Step = 98.5253%
Source Step = 98.6153%
Source Step = 98.7053%
Source Step = 98.7953%
Source Step = 98.8853%
Source Step = 98.9753%
Source Step = 99.0652%
Starting source stepping with srcstepmethod=1
Source Step = 3.0303%
vernier = 0.25
Source Step = 0.0828598%
Source Step = 0.201231%
Source Step = 0.319602%
Source stepping failed

Pseudo Transient succeeded in finding the operating point at 1.33925 s.
Total elapsed time: 24.465 seconds.

Files loaded:
C:\Users\a940590\Documents\GitHub\VMC\LTspice\VMC\VMC.net
C:\Users\a940590\Documents\GitHub\VMC\LTspice\VMC\SHT40I_model.sub
C:\Users\a940590\Documents\GitHub\VMC\LTspice\VMC\MOS.lib
C:\Users\a940590\Documents\GitHub\VMC\LTspice\VMC\lm321lv.lib
C:\Users\a940590\AppData\Local\LTspice\lib\sub\ADP7105.sub

